*SPEF "IEEE 1481-1998"
*DESIGN "dc_router_top"
*DATE "Sun Apr 14 16:39:26 2013"
*VENDOR "Silicon Perspective, A Cadence Company"
*PROGRAM "First Encounter"
*VERSION "08.10-s273_1"
*DESIGN_FLOW "COUPLING C" "PIN_CAP NONE" "NAME_SCOPE LOCAL"
*DIVIDER /
*DELIMITER :
*BUS_DELIMITER []
*T_UNIT 1 NS
*C_UNIT 1 PF
*R_UNIT 1 OHM
*L_UNIT 1 HENRY

*NAME_MAP

*1 FE_OCPN1036_add_x_19_1_n94
*2 FE_OCPN1037_n1469
*3 FE_OCPN1038_n1469
*4 FE_OCPN1094_FE_OFN432_offset_0_
*5 FE_OCPN1095_FE_OFN432_offset_0_
*6 FE_OCPN1096_FE_OFN400_offset_8_
*7 FE_OCPN1097_add_x_19_3_n166
*8 FE_OCPN819_FE_OFN446_filesize_23_
*9 FE_OCPN820_FE_OFN446_filesize_23_
*10 FE_OCPN821_FE_OFN447_filesize_23_
*11 FE_OCPN822_FE_OFN460_filesize_14_
*12 FE_OCPN823_add_x_19_0_n165
*13 FE_OCPN825_DP_OP_158_296_6262_n2011
*14 FE_OCPN826_n2589
*15 FE_OCPN930_n2439
*16 FE_OCPN931_FE_OFN372_offset_15_
*17 FE_OCPN932_n1789
*18 FE_OCPUNCON597_filesize_1_
*19 FE_OCPUNCON598_n1791
*20 FE_OCPUNCON599_n1791
*21 FE_OCPUNCON600_n1192
*22 FE_OCPUNCON601_n2812
*23 FE_OCPUNCON602_FE_OFN70_n2787
*24 FE_OCPUNCON603_FE_OFN71_n2787
*25 FE_OCPUNCON604_n1192
*26 FE_OCPUNCON605_n2812
*27 FE_OCPUNCON606_n2812
*28 FE_OCPUNCON607_n2813
*29 FE_OCPUNCON608_FE_OFN70_n2787
*30 FE_OCPUNCON609_FE_OFN71_n2787
*31 FE_OCPUNCON610_n2812
*32 FE_OCPUNCON611_n2813
*33 FE_OCPUNCON612_FE_OFN70_n2787
*34 FE_OCPUNCON613_FE_OFN71_n2787
*35 FE_OCPUNCON614_FE_OFN91_n2812
*36 FE_OCPUNCON615_n2812
*37 FE_OCPUNCON616_n2813
*38 FE_OCPUNCON617_FE_OFN100_n2813
*39 FE_OCPUNCON618_FE_OFN70_n2787
*40 FE_OCPUNCON619_FE_OFN91_n2812
*41 FE_OCPUNCON620_n2812
*42 FE_OCPUNCON621_n2813
*43 FE_OCPUNCON622_FE_OFN100_n2813
*44 FE_OCPUNCON623_n2813
*45 FE_OCPUNCON672_filesize_16_
*46 FE_OCPUNCON673_FE_OFN455_filesize_16_
*47 FE_OCPUNCON772_filesize_8_
*48 FE_OCP_DRV_N1197_offset_24_
*49 FE_OCP_DRV_N1227_filesize_27_
*50 FE_OCP_DRV_N1249_filesize_13_
*51 FE_OCP_DRV_N1271_filesize_6_
*52 FE_OCP_DRV_N1349_filesize_8_
*53 FE_OCP_DRV_N833_offset_20_
*54 FE_OCP_DRV_N867_offset_8_
*55 FE_OCP_DRV_N881_offset_4_
*56 FE_OCP_DRV_N893_filesize_29_
*57 FE_OCP_DRV_N899_filesize_4_
*58 FE_OCP_DRV_N905_filesize_0_
*59 FE_OCP_DRV_N946_offset_14_
*60 FE_OCP_DRV_N992_filesize_7_
*61 FE_OFN0_n1704
*62 FE_OFN100_n2813
*63 FE_OFN106_addr_calc_iir_write_addr_25_
*64 FE_OFN107_add_x_19_3_n113
*65 FE_OFN108_add_x_19_2_n59
*66 FE_OFN109_add_x_19_3_n59
*67 FE_OFN10_n2794
*68 FE_OFN110_add_x_19_5_n59
*69 FE_OFN111_n801
*70 FE_OFN112_n801
*71 FE_OFN113_n877
*72 FE_OFN114_add_x_22_2_n59
*73 FE_OFN115_add_x_22_5_n59
*74 FE_OFN116_add_x_22_4_n59
*75 FE_OFN117_n917
*76 FE_OFN118_n2074
*77 FE_OFN119_n863
*78 FE_OFN11_n2794
*79 FE_OFN120_n878
*80 FE_OFN121_n844
*81 FE_OFN122_n3
*82 FE_OFN123_n3
*83 FE_OFN124_n3
*84 FE_OFN125_n3
*85 FE_OFN126_n3
*86 FE_OFN127_n67
*87 FE_OFN128_n67
*88 FE_OFN129_n67
*89 FE_OFN12_n2794
*90 FE_OFN130_n67
*91 FE_OFN131_n323
*92 FE_OFN132_n323
*93 FE_OFN133_n323
*94 FE_OFN134_n323
*95 FE_OFN135_n259
*96 FE_OFN136_n259
*97 FE_OFN137_n259
*98 FE_OFN138_n259
*99 FE_OFN139_n195
*100 FE_OFN13_n2797
*101 FE_OFN140_n195
*102 FE_OFN141_n195
*103 FE_OFN142_n195
*104 FE_OFN143_n131
*105 FE_OFN144_n131
*106 FE_OFN145_n131
*107 FE_OFN146_n131
*108 FE_OFN147_n451
*109 FE_OFN148_n451
*110 FE_OFN149_n451
*111 FE_OFN14_n2797
*112 FE_OFN150_n451
*113 FE_OFN151_n451
*114 FE_OFN152_n451
*115 FE_OFN153_n451
*116 FE_OFN154_n579
*117 FE_OFN155_n579
*118 FE_OFN156_n579
*119 FE_OFN157_n579
*120 FE_OFN158_n579
*121 FE_OFN159_n579
*122 FE_OFN15_n2797
*123 FE_OFN160_n579
*124 FE_OFN161_n707
*125 FE_OFN162_n707
*126 FE_OFN163_n707
*127 FE_OFN164_n707
*128 FE_OFN165_n707
*129 FE_OFN166_n707
*130 FE_OFN167_n707
*131 FE_OFN168_n387
*132 FE_OFN169_n387
*133 FE_OFN16_n2797
*134 FE_OFN170_n387
*135 FE_OFN171_n387
*136 FE_OFN172_n387
*137 FE_OFN173_n387
*138 FE_OFN174_n387
*139 FE_OFN175_n387
*140 FE_OFN176_n387
*141 FE_OFN177_n515
*142 FE_OFN178_n515
*143 FE_OFN179_n515
*144 FE_OFN17_n2797
*145 FE_OFN180_n515
*146 FE_OFN181_n515
*147 FE_OFN182_n515
*148 FE_OFN183_n515
*149 FE_OFN184_n515
*150 FE_OFN185_n515
*151 FE_OFN186_n643
*152 FE_OFN187_n643
*153 FE_OFN188_n643
*154 FE_OFN189_n643
*155 FE_OFN18_n2797
*156 FE_OFN190_n643
*157 FE_OFN191_n643
*158 FE_OFN192_n643
*159 FE_OFN193_n643
*160 FE_OFN194_n643
*161 FE_OFN195_addr_calc_fft_read_calc_count_6_
*162 FE_OFN196_addr_calc_fft_read_calc_count_6_
*163 FE_OFN197_addr_calc_fft_read_calc_count_31_
*164 FE_OFN198_addr_calc_fir_read_calc_count_7_
*165 FE_OFN199_fft_enable
*166 FE_OFN19_n2797
*167 FE_OFN1_n1704
*168 FE_OFN200_addr_calc_iir_write_calc_count_15_
*169 FE_OFN201_addr_calc_iir_write_calc_count_15_
*170 FE_OFN202_addr_calc_fir_write_calc_count_25_
*171 FE_OFN203_addr_calc_fir_write_calc_count_12_
*172 FE_OFN204_addr_calc_fir_write_calc_count_12_
*173 FE_OFN205_addr_calc_iir_read_calc_count_31_
*174 FE_OFN206_addr_calc_iir_read_calc_count_27_
*175 FE_OFN207_addr_calc_iir_read_calc_count_11_
*176 FE_OFN208_addr_calc_fir_write_calc_count_30_
*177 FE_OFN209_addr_calc_iir_write_calc_count_30_
*178 FE_OFN20_n2797
*179 FE_OFN210_addr_calc_iir_write_calc_count_31_
*180 FE_OFN211_addr_calc_fir_write_calc_count_4_
*181 FE_OFN212_addr_calc_fir_write_calc_count_1_
*182 FE_OFN213_addr_calc_fir_read_calc_count_27_
*183 FE_OFN214_addr_calc_iir_read_calc_count_4_
*184 FE_OFN215_addr_calc_fir_read_calc_count_5_
*185 FE_OFN216_addr_calc_iir_read_calc_count_7_
*186 FE_OFN217_addr_calc_iir_read_calc_count_10_
*187 FE_OFN218_addr_calc_iir_read_calc_count_10_
*188 FE_OFN219_addr_calc_fir_read_calc_count_1_
*189 FE_OFN21_n2797
*190 FE_OFN220_addr_calc_iir_write_calc_count_3_
*191 FE_OFN221_addr_calc_fft_read_calc_count_5_
*192 FE_OFN222_addr_calc_fir_write_calc_count_0_
*193 FE_OFN223_addr_calc_fir_write_calc_count_6_
*194 FE_OFN224_addr_calc_fir_write_calc_count_6_
*195 FE_OFN225_addr_calc_fir_write_calc_count_8_
*196 FE_OFN226_addr_calc_fir_write_calc_count_8_
*197 FE_OFN227_addr_calc_fft_write_calc_count_14_
*198 FE_OFN228_addr_calc_fft_write_calc_count_14_
*199 FE_OFN229_addr_calc_fft_write_calc_count_0_
*200 FE_OFN22_n2797
*201 FE_OFN230_addr_calc_fft_write_calc_count_0_
*202 FE_OFN231_addr_calc_fir_read_calc_count_31_
*203 FE_OFN232_addr_calc_fir_write_calc_count_31_
*204 FE_OFN233_addr_calc_fft_read_calc_count_4_
*205 FE_OFN234_addr_calc_iir_write_calc_count_18_
*206 FE_OFN235_addr_calc_iir_write_calc_count_18_
*207 FE_OFN237_addr_calc_fir_write_calc_count_26_
*208 FE_OFN238_addr_calc_fir_read_calc_count_26_
*209 FE_OFN239_addr_calc_fir_read_calc_count_26_
*210 FE_OFN23_n2795
*211 FE_OFN240_addr_calc_fft_write_calc_count_6_
*212 FE_OFN241_addr_calc_fft_write_calc_count_6_
*213 FE_OFN242_addr_calc_fir_write_calc_count_29_
*214 FE_OFN243_addr_calc_fft_write_calc_count_31_
*215 FE_OFN244_addr_calc_fft_read_calc_count_29_
*216 FE_OFN245_addr_calc_fft_write_calc_count_24_
*217 FE_OFN246_addr_calc_fft_write_calc_count_24_
*218 FE_OFN247_addr_calc_fft_read_calc_count_30_
*219 FE_OFN248_addr_calc_fft_write_calc_count_30_
*220 FE_OFN249_addr_calc_fft_write_calc_count_20_
*221 FE_OFN24_n2795
*222 FE_OFN250_addr_calc_fft_write_calc_count_20_
*223 FE_OFN251_addr_calc_fir_write_calc_count_20_
*224 FE_OFN252_addr_calc_fir_write_calc_count_20_
*225 FE_OFN253_addr_calc_fft_write_calc_count_22_
*226 FE_OFN254_addr_calc_fft_write_calc_count_22_
*227 FE_OFN255_addr_calc_iir_read_calc_count_30_
*228 FE_OFN256_addr_calc_fft_read_calc_count_17_
*229 FE_OFN257_addr_calc_fft_read_calc_count_21_
*230 FE_OFN258_n2641
*231 FE_OFN259_n2641
*232 FE_OFN25_n2795
*233 FE_OFN260_n2641
*234 FE_OFN261_n2641
*235 FE_OFN262_n2641
*236 FE_OFN263_n2642
*237 FE_OFN264_n2642
*238 FE_OFN265_n2642
*239 FE_OFN266_n2642
*240 FE_OFN267_n2642
*241 FE_OFN268_n2646
*242 FE_OFN269_n2646
*243 FE_OFN26_n2795
*244 FE_OFN270_n2646
*245 FE_OFN271_n2646
*246 FE_OFN272_n2646
*247 FE_OFN273_n2645
*248 FE_OFN274_n2645
*249 FE_OFN275_n2645
*250 FE_OFN276_n2645
*251 FE_OFN277_n2645
*252 FE_OFN278_n2644
*253 FE_OFN279_n2644
*254 FE_OFN27_n2795
*255 FE_OFN280_n2644
*256 FE_OFN281_n2644
*257 FE_OFN282_n2644
*258 FE_OFN283_n2643
*259 FE_OFN284_n2643
*260 FE_OFN285_n2643
*261 FE_OFN286_n2643
*262 FE_OFN287_n2643
*263 FE_OFN288_data_cntl_N159
*264 FE_OFN289_data_from_iir
*265 FE_OFN28_n2795
*266 FE_OFN290_data_from_iir
*267 FE_OFN291_data_from_iir
*268 FE_OFN292_data_from_iir
*269 FE_OFN293_data_from_fir
*270 FE_OFN294_data_from_fir
*271 FE_OFN295_data_from_fir
*272 FE_OFN296_data_cntl_N9
*273 FE_OFN297_data_from_fft
*274 FE_OFN298_data_from_fft
*275 FE_OFN299_data_from_fft
*276 FE_OFN29_n2795
*277 FE_OFN2_n2794
*278 FE_OFN300_data_cntl_N191
*279 FE_OFN301_data_to_iir
*280 FE_OFN302_data_to_iir
*281 FE_OFN303_data_cntl_N99
*282 FE_OFN304_data_to_fir
*283 FE_OFN305_data_to_fir
*284 FE_OFN306_data_to_fft
*285 FE_OFN307_data_to_fft
*286 FE_OFN308_instruction_2_
*287 FE_OFN309_instruction_1_
*288 FE_OFN30_n2795
*289 FE_OFN310_instruction_0_
*290 FE_OFN311_offset_31_
*291 FE_OFN313_offset_31_
*292 FE_OFN314_offset_31_
*293 FE_OFN315_offset_30_
*294 FE_OFN317_offset_30_
*295 FE_OFN318_offset_30_
*296 FE_OFN319_offset_29_
*297 FE_OFN31_n2795
*298 FE_OFN321_offset_29_
*299 FE_OFN322_offset_29_
*300 FE_OFN323_offset_28_
*301 FE_OFN324_offset_28_
*302 FE_OFN325_offset_28_
*303 FE_OFN326_offset_28_
*304 FE_OFN327_offset_27_
*305 FE_OFN328_offset_27_
*306 FE_OFN329_offset_27_
*307 FE_OFN32_n2805
*308 FE_OFN330_offset_27_
*309 FE_OFN331_offset_26_
*310 FE_OFN332_offset_26_
*311 FE_OFN333_offset_26_
*312 FE_OFN334_offset_26_
*313 FE_OFN335_offset_25_
*314 FE_OFN336_offset_25_
*315 FE_OFN337_offset_25_
*316 FE_OFN338_offset_25_
*317 FE_OFN339_offset_24_
*318 FE_OFN33_n2805
*319 FE_OFN340_offset_24_
*320 FE_OFN341_offset_24_
*321 FE_OFN342_offset_24_
*322 FE_OFN343_offset_23_
*323 FE_OFN344_offset_23_
*324 FE_OFN345_offset_23_
*325 FE_OFN346_offset_23_
*326 FE_OFN347_offset_22_
*327 FE_OFN348_offset_22_
*328 FE_OFN349_offset_22_
*329 FE_OFN34_n2805
*330 FE_OFN350_offset_22_
*331 FE_OFN351_offset_21_
*332 FE_OFN352_offset_21_
*333 FE_OFN353_offset_21_
*334 FE_OFN354_offset_21_
*335 FE_OFN355_offset_20_
*336 FE_OFN356_offset_19_
*337 FE_OFN357_offset_19_
*338 FE_OFN358_offset_19_
*339 FE_OFN359_offset_19_
*340 FE_OFN35_n2805
*341 FE_OFN360_offset_18_
*342 FE_OFN361_offset_18_
*343 FE_OFN362_offset_18_
*344 FE_OFN363_offset_18_
*345 FE_OFN364_offset_17_
*346 FE_OFN365_offset_17_
*347 FE_OFN366_offset_17_
*348 FE_OFN367_offset_17_
*349 FE_OFN368_offset_16_
*350 FE_OFN369_offset_16_
*351 FE_OFN36_n2805
*352 FE_OFN370_offset_16_
*353 FE_OFN371_offset_16_
*354 FE_OFN372_offset_15_
*355 FE_OFN373_offset_15_
*356 FE_OFN374_offset_15_
*357 FE_OFN375_offset_15_
*358 FE_OFN376_offset_14_
*359 FE_OFN377_offset_14_
*360 FE_OFN378_offset_14_
*361 FE_OFN379_offset_14_
*362 FE_OFN37_n2805
*363 FE_OFN380_offset_13_
*364 FE_OFN381_offset_13_
*365 FE_OFN382_offset_13_
*366 FE_OFN383_offset_13_
*367 FE_OFN384_offset_12_
*368 FE_OFN385_offset_12_
*369 FE_OFN386_offset_12_
*370 FE_OFN387_offset_12_
*371 FE_OFN388_offset_11_
*372 FE_OFN389_offset_11_
*373 FE_OFN38_n2805
*374 FE_OFN390_offset_11_
*375 FE_OFN391_offset_11_
*376 FE_OFN392_offset_10_
*377 FE_OFN393_offset_10_
*378 FE_OFN394_offset_10_
*379 FE_OFN395_offset_10_
*380 FE_OFN396_offset_9_
*381 FE_OFN397_offset_9_
*382 FE_OFN398_offset_9_
*383 FE_OFN399_offset_9_
*384 FE_OFN39_n2805
*385 FE_OFN3_n2794
*386 FE_OFN400_offset_8_
*387 FE_OFN401_offset_8_
*388 FE_OFN402_offset_8_
*389 FE_OFN403_offset_8_
*390 FE_OFN404_offset_7_
*391 FE_OFN405_offset_7_
*392 FE_OFN406_offset_7_
*393 FE_OFN407_offset_7_
*394 FE_OFN408_offset_6_
*395 FE_OFN409_offset_6_
*396 FE_OFN40_n2805
*397 FE_OFN410_offset_6_
*398 FE_OFN411_offset_6_
*399 FE_OFN412_offset_5_
*400 FE_OFN413_offset_5_
*401 FE_OFN414_offset_5_
*402 FE_OFN415_offset_5_
*403 FE_OFN416_offset_4_
*404 FE_OFN417_offset_4_
*405 FE_OFN418_offset_4_
*406 FE_OFN419_offset_4_
*407 FE_OFN41_n2805
*408 FE_OFN420_offset_3_
*409 FE_OFN421_offset_3_
*410 FE_OFN422_offset_3_
*411 FE_OFN423_offset_3_
*412 FE_OFN424_offset_2_
*413 FE_OFN425_offset_2_
*414 FE_OFN426_offset_2_
*415 FE_OFN427_offset_2_
*416 FE_OFN428_offset_1_
*417 FE_OFN429_offset_1_
*418 FE_OFN42_n1758
*419 FE_OFN430_offset_1_
*420 FE_OFN431_offset_1_
*421 FE_OFN432_offset_0_
*422 FE_OFN433_offset_0_
*423 FE_OFN434_offset_0_
*424 FE_OFN435_offset_0_
*425 FE_OFN436_filesize_31_
*426 FE_OFN437_filesize_30_
*427 FE_OFN438_filesize_29_
*428 FE_OFN439_filesize_29_
*429 FE_OFN43_n2803
*430 FE_OFN440_filesize_28_
*431 FE_OFN441_filesize_27_
*432 FE_OFN442_filesize_26_
*433 FE_OFN443_filesize_25_
*434 FE_OFN444_filesize_25_
*435 FE_OFN445_filesize_24_
*436 FE_OFN446_filesize_23_
*437 FE_OFN447_filesize_23_
*438 FE_OFN448_filesize_22_
*439 FE_OFN449_filesize_22_
*440 FE_OFN44_n2803
*441 FE_OFN450_filesize_21_
*442 FE_OFN451_filesize_20_
*443 FE_OFN452_filesize_19_
*444 FE_OFN453_filesize_18_
*445 FE_OFN454_filesize_17_
*446 FE_OFN455_filesize_16_
*447 FE_OFN457_filesize_15_
*448 FE_OFN458_filesize_15_
*449 FE_OFN459_filesize_14_
*450 FE_OFN45_n2803
*451 FE_OFN460_filesize_14_
*452 FE_OFN461_filesize_13_
*453 FE_OFN462_filesize_12_
*454 FE_OFN463_filesize_11_
*455 FE_OFN464_filesize_10_
*456 FE_OFN465_filesize_9_
*457 FE_OFN466_filesize_8_
*458 FE_OFN467_filesize_7_
*459 FE_OFN468_filesize_6_
*460 FE_OFN469_filesize_5_
*461 FE_OFN46_n2803
*462 FE_OFN470_filesize_4_
*463 FE_OFN471_filesize_3_
*464 FE_OFN472_filesize_3_
*465 FE_OFN473_filesize_2_
*466 FE_OFN474_filesize_1_
*467 FE_OFN475_filesize_1_
*468 FE_OFN476_filesize_0_
*469 FE_OFN477_fft_data_in_31_
*470 FE_OFN478_fft_data_in_30_
*471 FE_OFN479_fft_data_in_29_
*472 FE_OFN47_n2807
*473 FE_OFN480_fft_data_in_28_
*474 FE_OFN481_fft_data_in_20_
*475 FE_OFN482_fft_data_in_19_
*476 FE_OFN483_fft_data_in_18_
*477 FE_OFN484_fft_data_in_13_
*478 FE_OFN485_fft_data_in_11_
*479 FE_OFN486_fir_data_in_31_
*480 FE_OFN487_fir_data_in_30_
*481 FE_OFN488_fir_data_in_28_
*482 FE_OFN489_fir_data_in_21_
*483 FE_OFN48_n2807
*484 FE_OFN490_fir_data_in_20_
*485 FE_OFN491_fir_data_in_18_
*486 FE_OFN492_fir_data_in_12_
*487 FE_OFN493_fir_data_in_11_
*488 FE_OFN494_fir_data_in_10_
*489 FE_OFN495_fir_data_in_9_
*490 FE_OFN496_fir_data_in_5_
*491 FE_OFN497_fir_data_in_1_
*492 FE_OFN498_fir_data_in_0_
*493 FE_OFN499_iir_data_in_28_
*494 FE_OFN49_n2807
*495 FE_OFN4_n2794
*496 FE_OFN500_iir_data_in_26_
*497 FE_OFN501_iir_data_in_25_
*498 FE_OFN502_iir_data_in_18_
*499 FE_OFN503_iir_data_in_17_
*500 FE_OFN504_iir_data_in_11_
*501 FE_OFN505_iir_data_in_4_
*502 FE_OFN506_iir_data_in_1_
*503 FE_OFN507_to_fft_empty
*504 FE_OFN508_to_fft_full
*505 FE_OFN509_from_fft_empty
*506 FE_OFN50_n2807
*507 FE_OFN510_from_fft_full
*508 FE_OFN511_to_fir_empty
*509 FE_OFN512_to_fir_full
*510 FE_OFN513_from_fir_empty
*511 FE_OFN514_from_fir_full
*512 FE_OFN515_to_iir_empty
*513 FE_OFN516_to_iir_full
*514 FE_OFN517_from_iir_empty
*515 FE_OFN518_from_iir_full
*516 FE_OFN519_add_x_19_1_n157
*517 FE_OFN51_n2807
*518 FE_OFN520_add_x_19_1_n113
*519 FE_OFN521_add_x_19_2_n157
*520 FE_OFN523_add_x_19_5_n157
*521 FE_OFN524_add_x_19_5_n113
*522 FE_OFN525_add_x_19_2_n113
*523 FE_OFN526_add_x_19_0_n157
*524 FE_OFN527_add_x_19_4_n113
*525 FE_OFN528_add_x_19_0_n113
*526 FE_OFN529_n1791
*527 FE_OFN52_n2807
*528 FE_OFN532_n2441
*529 FE_OFN533_n2441
*530 FE_OFN534_offset_29_
*531 FE_OFN535_offset_30_
*532 FE_OFN536_offset_31_
*533 FE_OFN537_addr_calc_fir_write_calc_count_26_
*534 FE_OFN538_n2060
*535 FE_OFN539_n2060
*536 FE_OFN53_n2807
*537 FE_OFN540_n2060
*538 FE_OFN541_n2066
*539 FE_OFN542_n2066
*540 FE_OFN543_n2066
*541 FE_OFN544_data_cntl_N95
*542 FE_OFN545_offset_19_
*543 FE_OFN546_offset_18_
*544 FE_OFN548_offset_16_
*545 FE_OFN549_offset_15_
*546 FE_OFN54_n2807
*547 FE_OFN550_offset_14_
*548 FE_OFN551_offset_8_
*549 FE_OFN555_offset_4_
*550 FE_OFN556_offset_3_
*551 FE_OFN557_offset_2_
*552 FE_OFN558_offset_1_
*553 FE_OFN559_offset_0_
*554 FE_OFN55_n2807
*555 FE_OFN560_filesize_29_
*556 FE_OFN561_filesize_27_
*557 FE_OFN562_filesize_23_
*558 FE_OFN563_filesize_20_
*559 FE_OFN564_filesize_19_
*560 FE_OFN566_filesize_14_
*561 FE_OFN567_filesize_13_
*562 FE_OFN568_filesize_12_
*563 FE_OFN569_filesize_11_
*564 FE_OFN56_n2807
*565 FE_OFN573_filesize_7_
*566 FE_OFN574_filesize_6_
*567 FE_OFN575_filesize_5_
*568 FE_OFN579_filesize_0_
*569 FE_OFN57_n2809
*570 FE_OFN58_n2809
*571 FE_OFN59_n2809
*572 FE_OFN5_n2794
*573 FE_OFN60_n2809
*574 FE_OFN61_n2809
*575 FE_OFN62_n2809
*576 FE_OFN63_n2809
*577 FE_OFN64_n2809
*578 FE_OFN65_n2809
*579 FE_OFN66_n2809
*580 FE_OFN67_n2589
*581 FE_OFN68_n2589
*582 FE_OFN69_n2599
*583 FE_OFN6_n2794
*584 FE_OFN70_n2787
*585 FE_OFN71_n2787
*586 FE_OFN79_n2654
*587 FE_OFN7_n2794
*588 FE_OFN80_n2654
*589 FE_OFN81_n2654
*590 FE_OFN82_n2654
*591 FE_OFN83_n2654
*592 FE_OFN85_n1192
*593 FE_OFN87_n1192
*594 FE_OFN8_n2794
*595 FE_OFN91_n2812
*596 FE_OFN97_n2813
*597 FE_OFN9_n2794
*598 FE_RN_100_0
*599 FE_RN_134_0
*600 FE_RN_155_0
*601 FE_RN_156_0
*602 FE_RN_157_0
*603 FE_RN_27_0
*604 FE_RN_28_0
*605 FE_RN_29_0
*606 FE_RN_30_0
*607 FE_RN_31_0
*608 FE_RN_32_0
*609 FE_RN_33_0
*610 FE_RN_34_0
*611 FE_RN_35_0
*612 FE_RN_36_0
*613 FE_RN_37_0
*614 FE_RN_38_0
*615 FE_RN_39_0
*616 FE_RN_50_0
*617 FE_RN_51_0
*618 FE_RN_52_0
*619 FE_RN_53_0
*620 FE_RN_54_0
*621 FE_RN_55_0
*622 FE_RN_56_0
*623 FE_RN_57_0
*624 FE_RN_6_0
*625 FE_RN_70_0
*626 FE_RN_71_0
*627 FE_RN_72_0
*628 FE_RN_73_0
*629 FE_RN_7_0
*630 FE_RN_94_0
*631 FE_RN_95_0
*632 FE_RN_96_0
*633 FE_RN_97_0
*634 acc_done
*635 addr[0]
*636 addr[10]
*637 addr[11]
*638 addr[12]
*639 addr[13]
*640 addr[14]
*641 addr[15]
*642 addr[16]
*643 addr[17]
*644 addr[18]
*645 addr[19]
*646 addr[1]
*647 addr[20]
*648 addr[21]
*649 addr[22]
*650 addr[23]
*651 addr[24]
*652 addr[25]
*653 addr[26]
*654 addr[27]
*655 addr[28]
*656 addr[29]
*657 addr[2]
*658 addr[30]
*659 addr[31]
*660 addr[3]
*661 addr[4]
*662 addr[5]
*663 addr[6]
*664 addr[7]
*665 addr[8]
*666 addr[9]
*667 chipselect
*668 clk
*669 clk__L1_N0
*670 data_bus[0]
*671 data_bus[10]
*672 data_bus[11]
*673 data_bus[12]
*674 data_bus[13]
*675 data_bus[14]
*676 data_bus[15]
*677 data_bus[16]
*678 data_bus[17]
*679 data_bus[18]
*680 data_bus[19]
*681 data_bus[1]
*682 data_bus[20]
*683 data_bus[21]
*684 data_bus[22]
*685 data_bus[23]
*686 data_bus[24]
*687 data_bus[25]
*688 data_bus[26]
*689 data_bus[27]
*690 data_bus[28]
*691 data_bus[29]
*692 data_bus[2]
*693 data_bus[30]
*694 data_bus[31]
*695 data_bus[3]
*696 data_bus[4]
*697 data_bus[5]
*698 data_bus[6]
*699 data_bus[7]
*700 data_bus[8]
*701 data_bus[9]
*702 data_from_fft
*703 data_from_fir
*704 data_from_iir
*705 data_to_fft
*706 data_to_fir
*707 data_to_iir
*708 fft_data_in[0]
*709 fft_data_in[10]
*710 fft_data_in[11]
*711 fft_data_in[12]
*712 fft_data_in[13]
*713 fft_data_in[14]
*714 fft_data_in[15]
*715 fft_data_in[16]
*716 fft_data_in[17]
*717 fft_data_in[18]
*718 fft_data_in[19]
*719 fft_data_in[1]
*720 fft_data_in[20]
*721 fft_data_in[21]
*722 fft_data_in[22]
*723 fft_data_in[23]
*724 fft_data_in[24]
*725 fft_data_in[25]
*726 fft_data_in[26]
*727 fft_data_in[27]
*728 fft_data_in[28]
*729 fft_data_in[29]
*730 fft_data_in[2]
*731 fft_data_in[30]
*732 fft_data_in[31]
*733 fft_data_in[3]
*734 fft_data_in[4]
*735 fft_data_in[5]
*736 fft_data_in[6]
*737 fft_data_in[7]
*738 fft_data_in[8]
*739 fft_data_in[9]
*740 fft_data_out[0]
*741 fft_data_out[10]
*742 fft_data_out[11]
*743 fft_data_out[12]
*744 fft_data_out[13]
*745 fft_data_out[14]
*746 fft_data_out[15]
*747 fft_data_out[16]
*748 fft_data_out[17]
*749 fft_data_out[18]
*750 fft_data_out[19]
*751 fft_data_out[1]
*752 fft_data_out[20]
*753 fft_data_out[21]
*754 fft_data_out[22]
*755 fft_data_out[23]
*756 fft_data_out[24]
*757 fft_data_out[25]
*758 fft_data_out[26]
*759 fft_data_out[27]
*760 fft_data_out[28]
*761 fft_data_out[29]
*762 fft_data_out[2]
*763 fft_data_out[30]
*764 fft_data_out[31]
*765 fft_data_out[3]
*766 fft_data_out[4]
*767 fft_data_out[5]
*768 fft_data_out[6]
*769 fft_data_out[7]
*770 fft_data_out[8]
*771 fft_data_out[9]
*772 fft_enable
*773 fft_get_req
*774 fft_put_req
*775 fft_put_req_reg
*776 fft_read_done
*777 filesize[0]
*778 filesize[10]
*779 filesize[11]
*780 filesize[12]
*781 filesize[13]
*782 filesize[14]
*783 filesize[15]
*784 filesize[16]
*785 filesize[17]
*786 filesize[18]
*787 filesize[19]
*788 filesize[1]
*789 filesize[20]
*790 filesize[21]
*791 filesize[22]
*792 filesize[23]
*793 filesize[24]
*794 filesize[25]
*795 filesize[26]
*796 filesize[27]
*797 filesize[28]
*798 filesize[29]
*799 filesize[2]
*800 filesize[30]
*801 filesize[31]
*802 filesize[3]
*803 filesize[4]
*804 filesize[5]
*805 filesize[6]
*806 filesize[7]
*807 filesize[8]
*808 filesize[9]
*809 fir_data_in[0]
*810 fir_data_in[10]
*811 fir_data_in[11]
*812 fir_data_in[12]
*813 fir_data_in[13]
*814 fir_data_in[14]
*815 fir_data_in[15]
*816 fir_data_in[16]
*817 fir_data_in[17]
*818 fir_data_in[18]
*819 fir_data_in[19]
*820 fir_data_in[1]
*821 fir_data_in[20]
*822 fir_data_in[21]
*823 fir_data_in[22]
*824 fir_data_in[23]
*825 fir_data_in[24]
*826 fir_data_in[25]
*827 fir_data_in[26]
*828 fir_data_in[27]
*829 fir_data_in[28]
*830 fir_data_in[29]
*831 fir_data_in[2]
*832 fir_data_in[30]
*833 fir_data_in[31]
*834 fir_data_in[3]
*835 fir_data_in[4]
*836 fir_data_in[5]
*837 fir_data_in[6]
*838 fir_data_in[7]
*839 fir_data_in[8]
*840 fir_data_in[9]
*841 fir_data_out[0]
*842 fir_data_out[10]
*843 fir_data_out[11]
*844 fir_data_out[12]
*845 fir_data_out[13]
*846 fir_data_out[14]
*847 fir_data_out[15]
*848 fir_data_out[16]
*849 fir_data_out[17]
*850 fir_data_out[18]
*851 fir_data_out[19]
*852 fir_data_out[1]
*853 fir_data_out[20]
*854 fir_data_out[21]
*855 fir_data_out[22]
*856 fir_data_out[23]
*857 fir_data_out[24]
*858 fir_data_out[25]
*859 fir_data_out[26]
*860 fir_data_out[27]
*861 fir_data_out[28]
*862 fir_data_out[29]
*863 fir_data_out[2]
*864 fir_data_out[30]
*865 fir_data_out[31]
*866 fir_data_out[3]
*867 fir_data_out[4]
*868 fir_data_out[5]
*869 fir_data_out[6]
*870 fir_data_out[7]
*871 fir_data_out[8]
*872 fir_data_out[9]
*873 fir_enable
*874 fir_get_req
*875 fir_get_req_reg
*876 fir_put_req
*877 fir_put_req_reg
*878 fir_read_done
*879 fir_write_done
*880 from_fft_empty
*881 from_fft_full
*882 from_fir_empty
*883 from_fir_full
*884 from_iir_empty
*885 from_iir_full
*886 iir_data_in[0]
*887 iir_data_in[10]
*888 iir_data_in[11]
*889 iir_data_in[12]
*890 iir_data_in[13]
*891 iir_data_in[14]
*892 iir_data_in[15]
*893 iir_data_in[16]
*894 iir_data_in[17]
*895 iir_data_in[18]
*896 iir_data_in[19]
*897 iir_data_in[1]
*898 iir_data_in[20]
*899 iir_data_in[21]
*900 iir_data_in[22]
*901 iir_data_in[23]
*902 iir_data_in[24]
*903 iir_data_in[25]
*904 iir_data_in[26]
*905 iir_data_in[27]
*906 iir_data_in[28]
*907 iir_data_in[29]
*908 iir_data_in[2]
*909 iir_data_in[30]
*910 iir_data_in[31]
*911 iir_data_in[3]
*912 iir_data_in[4]
*913 iir_data_in[5]
*914 iir_data_in[6]
*915 iir_data_in[7]
*916 iir_data_in[8]
*917 iir_data_in[9]
*918 iir_data_out[0]
*919 iir_data_out[10]
*920 iir_data_out[11]
*921 iir_data_out[12]
*922 iir_data_out[13]
*923 iir_data_out[14]
*924 iir_data_out[15]
*925 iir_data_out[16]
*926 iir_data_out[17]
*927 iir_data_out[18]
*928 iir_data_out[19]
*929 iir_data_out[1]
*930 iir_data_out[20]
*931 iir_data_out[21]
*932 iir_data_out[22]
*933 iir_data_out[23]
*934 iir_data_out[24]
*935 iir_data_out[25]
*936 iir_data_out[26]
*937 iir_data_out[27]
*938 iir_data_out[28]
*939 iir_data_out[29]
*940 iir_data_out[2]
*941 iir_data_out[30]
*942 iir_data_out[31]
*943 iir_data_out[3]
*944 iir_data_out[4]
*945 iir_data_out[5]
*946 iir_data_out[6]
*947 iir_data_out[7]
*948 iir_data_out[8]
*949 iir_data_out[9]
*950 iir_enable
*951 iir_get_req
*952 iir_get_req_reg
*953 iir_put_req
*954 iir_put_req_reg
*955 iir_read_done
*956 iir_write_done
*957 instruction[0]
*958 instruction[10]
*959 instruction[11]
*960 instruction[12]
*961 instruction[13]
*962 instruction[14]
*963 instruction[15]
*964 instruction[16]
*965 instruction[17]
*966 instruction[18]
*967 instruction[19]
*968 instruction[1]
*969 instruction[20]
*970 instruction[21]
*971 instruction[22]
*972 instruction[23]
*973 instruction[24]
*974 instruction[25]
*975 instruction[26]
*976 instruction[27]
*977 instruction[28]
*978 instruction[29]
*979 instruction[2]
*980 instruction[30]
*981 instruction[31]
*982 instruction[3]
*983 instruction[4]
*984 instruction[5]
*985 instruction[6]
*986 instruction[7]
*987 instruction[8]
*988 instruction[9]
*989 n1000
*990 n1001
*991 n1002
*992 n1003
*993 n1004
*994 n1005
*995 n1006
*996 n1007
*997 n1008
*998 n1009
*999 n1010
*1000 n1011
*1001 n1012
*1002 n1013
*1003 n1014
*1004 n1015
*1005 n1016
*1006 n1017
*1007 n1018
*1008 n1019
*1009 n1020
*1010 n1021
*1011 n1022
*1012 n1023
*1013 n1024
*1014 n1025
*1015 n1026
*1016 n1027
*1017 n1028
*1018 n1029
*1019 n1030
*1020 n1031
*1021 n1032
*1022 n1033
*1023 n1034
*1024 n1035
*1025 n1036
*1026 n1037
*1027 n1038
*1028 n1039
*1029 n1040
*1030 n1041
*1031 n1042
*1032 n1043
*1033 n1044
*1034 n1045
*1035 n1046
*1036 n1047
*1037 n1048
*1038 n1049
*1039 n1050
*1040 n1051
*1041 n1052
*1042 n1053
*1043 n1054
*1044 n1055
*1045 n1056
*1046 n1057
*1047 n1058
*1048 n1059
*1049 n1060
*1050 n1061
*1051 n1062
*1052 n1063
*1053 n1064
*1054 n1065
*1055 n1066
*1056 n1067
*1057 n1068
*1058 n1069
*1059 n1070
*1060 n1071
*1061 n1072
*1062 n1073
*1063 n1074
*1064 n1075
*1065 n1076
*1066 n1077
*1067 n1078
*1068 n1079
*1069 n1080
*1070 n1081
*1071 n1082
*1072 n1083
*1073 n1084
*1074 n1085
*1075 n1086
*1076 n1087
*1077 n1088
*1078 n1089
*1079 n1090
*1080 n1091
*1081 n1092
*1082 n1093
*1083 n1094
*1084 n1095
*1085 n1096
*1086 n1097
*1087 n1098
*1088 n1099
*1089 n1100
*1090 n1101
*1091 n1102
*1092 n1103
*1093 n1104
*1094 n1105
*1095 n1106
*1096 n1107
*1097 n1108
*1098 n1109
*1099 n1110
*1100 n1111
*1101 n1112
*1102 n1113
*1103 n1114
*1104 n1115
*1105 n1116
*1106 n1117
*1107 n1118
*1108 n1119
*1109 n1120
*1110 n1121
*1111 n1122
*1112 n1123
*1113 n1124
*1114 n1125
*1115 n1126
*1116 n1127
*1117 n1128
*1118 n1129
*1119 n1130
*1120 n1131
*1121 n1132
*1122 n1133
*1123 n1134
*1124 n1135
*1125 n1136
*1126 n1137
*1127 n1138
*1128 n1140
*1129 n1141
*1130 n1142
*1131 n1143
*1132 n1146
*1133 n1147
*1134 n1149
*1135 n1150
*1136 n1153
*1137 n1154
*1138 n1155
*1139 n1156
*1140 n1157
*1141 n1158
*1142 n1159
*1143 n1160
*1144 n1161
*1145 n1162
*1146 n1163
*1147 n1164
*1148 n1166
*1149 n1167
*1150 n1168
*1151 n1169
*1152 n1170
*1153 n1171
*1154 n1172
*1155 n1174
*1156 n1175
*1157 n1176
*1158 n1177
*1159 n1178
*1160 n1179
*1161 n1180
*1162 n1181
*1163 n1182
*1164 n1184
*1165 n1185
*1166 n1186
*1167 n1187
*1168 n1188
*1169 n1189
*1170 n1190
*1171 n1191
*1172 n1192
*1173 n1194
*1174 n1195
*1175 n1196
*1176 n1197
*1177 n1198
*1178 n1199
*1179 n1200
*1180 n1201
*1181 n1202
*1182 n1203
*1183 n1204
*1184 n1206
*1185 n1207
*1186 n1208
*1187 n1209
*1188 n1210
*1189 n1211
*1190 n1212
*1191 n1213
*1192 n1214
*1193 n1215
*1194 n1216
*1195 n1217
*1196 n1218
*1197 n1220
*1198 n1221
*1199 n1223
*1200 n1224
*1201 n1225
*1202 n1226
*1203 n1227
*1204 n1228
*1205 n1229
*1206 n1230
*1207 n1231
*1208 n1232
*1209 n1233
*1210 n1234
*1211 n1235
*1212 n1236
*1213 n1237
*1214 n1238
*1215 n1239
*1216 n1240
*1217 n1241
*1218 n1242
*1219 n1243
*1220 n1245
*1221 n1246
*1222 n1247
*1223 n1248
*1224 n1249
*1225 n1250
*1226 n1251
*1227 n1252
*1228 n1253
*1229 n1254
*1230 n1255
*1231 n1271
*1232 n1272
*1233 n1273
*1234 n1274
*1235 n1275
*1236 n1276
*1237 n1277
*1238 n1278
*1239 n1279
*1240 n1280
*1241 n1281
*1242 n1282
*1243 n1283
*1244 n1284
*1245 n1285
*1246 n1286
*1247 n1287
*1248 n1288
*1249 n1289
*1250 n1290
*1251 n1291
*1252 n1292
*1253 n1293
*1254 n1294
*1255 n1295
*1256 n1296
*1257 n1297
*1258 n1298
*1259 n1299
*1260 n1300
*1261 n1301
*1262 n1302
*1263 n1303
*1264 n1304
*1265 n1305
*1266 n1306
*1267 n1307
*1268 n1308
*1269 n1309
*1270 n131
*1271 n1310
*1272 n1311
*1273 n1312
*1274 n1313
*1275 n1314
*1276 n1315
*1277 n1316
*1278 n1317
*1279 n1318
*1280 n1319
*1281 n1320
*1282 n1321
*1283 n1322
*1284 n1323
*1285 n1324
*1286 n1325
*1287 n1326
*1288 n1327
*1289 n1328
*1290 n1329
*1291 n1330
*1292 n1331
*1293 n1332
*1294 n1333
*1295 n1334
*1296 n1335
*1297 n1336
*1298 n1337
*1299 n1338
*1300 n1339
*1301 n1340
*1302 n1341
*1303 n1342
*1304 n1343
*1305 n1344
*1306 n1345
*1307 n1346
*1308 n1347
*1309 n1348
*1310 n1349
*1311 n1350
*1312 n1351
*1313 n1352
*1314 n1353
*1315 n1354
*1316 n1355
*1317 n1356
*1318 n1357
*1319 n1358
*1320 n1359
*1321 n1360
*1322 n1361
*1323 n1362
*1324 n1363
*1325 n1364
*1326 n1365
*1327 n1366
*1328 n1367
*1329 n1368
*1330 n1369
*1331 n1370
*1332 n1371
*1333 n1372
*1334 n1373
*1335 n1374
*1336 n1375
*1337 n1376
*1338 n1377
*1339 n1378
*1340 n1379
*1341 n1380
*1342 n1381
*1343 n1382
*1344 n1383
*1345 n1384
*1346 n1385
*1347 n1386
*1348 n1387
*1349 n1388
*1350 n1389
*1351 n1390
*1352 n1391
*1353 n1392
*1354 n1393
*1355 n1394
*1356 n1395
*1357 n1396
*1358 n1397
*1359 n1398
*1360 n1399
*1361 n1400
*1362 n1401
*1363 n1402
*1364 n1403
*1365 n1404
*1366 n1405
*1367 n1406
*1368 n1407
*1369 n1408
*1370 n1409
*1371 n1410
*1372 n1411
*1373 n1412
*1374 n1413
*1375 n1414
*1376 n1415
*1377 n1416
*1378 n1417
*1379 n1418
*1380 n1419
*1381 n1420
*1382 n1421
*1383 n1422
*1384 n1423
*1385 n1424
*1386 n1425
*1387 n1426
*1388 n1427
*1389 n1428
*1390 n1429
*1391 n1430
*1392 n1431
*1393 n1432
*1394 n1433
*1395 n1434
*1396 n1435
*1397 n1436
*1398 n1437
*1399 n1438
*1400 n1439
*1401 n1440
*1402 n1441
*1403 n1442
*1404 n1443
*1405 n1444
*1406 n1445
*1407 n1446
*1408 n1447
*1409 n1448
*1410 n1449
*1411 n1450
*1412 n1451
*1413 n1452
*1414 n1453
*1415 n1454
*1416 n1455
*1417 n1459
*1418 n1461
*1419 n1462
*1420 n1463
*1421 n1464
*1422 n1465
*1423 n1466
*1424 n1467
*1425 n1468
*1426 n1469
*1427 n1470
*1428 n1471
*1429 n1478
*1430 n1479
*1431 n1532
*1432 n1533
*1433 n1534
*1434 n1535
*1435 n1536
*1436 n1537
*1437 n1538
*1438 n1539
*1439 n1540
*1440 n1541
*1441 n1542
*1442 n1543
*1443 n1544
*1444 n1545
*1445 n1546
*1446 n1547
*1447 n1548
*1448 n1549
*1449 n1550
*1450 n1551
*1451 n1552
*1452 n1553
*1453 n1554
*1454 n1555
*1455 n1556
*1456 n1557
*1457 n1558
*1458 n1559
*1459 n1560
*1460 n1561
*1461 n1563
*1462 n1564
*1463 n1565
*1464 n1566
*1465 n1567
*1466 n1568
*1467 n1569
*1468 n1570
*1469 n1571