$ Spice netlist generated by v2lvs
$ v2010.3_37.26    Mon Oct 4 16:21:17 PDT 2010
.INCLUDE "/tools2/courses/ee6321/share/ibm13rflpvt/lvs_netlist/ibm13rflpvt.cdl" 

.SUBCKT top_level clk reset acc_fft_get acc_fft_put acc_fir_get acc_fir_put 
+ acc_fft_data_out[31] acc_fft_data_out[30] acc_fft_data_out[29] 
+ acc_fft_data_out[28] acc_fft_data_out[27] acc_fft_data_out[26] 
+ acc_fft_data_out[25] acc_fft_data_out[24] acc_fft_data_out[23] 
+ acc_fft_data_out[22] acc_fft_data_out[21] acc_fft_data_out[20] 
+ acc_fft_data_out[19] acc_fft_data_out[18] acc_fft_data_out[17] 
+ acc_fft_data_out[16] acc_fft_data_out[15] acc_fft_data_out[14] 
+ acc_fft_data_out[13] acc_fft_data_out[12] acc_fft_data_out[11] 
+ acc_fft_data_out[10] acc_fft_data_out[9] acc_fft_data_out[8] 
+ acc_fft_data_out[7] acc_fft_data_out[6] acc_fft_data_out[5] 
+ acc_fft_data_out[4] acc_fft_data_out[3] acc_fft_data_out[2] 
+ acc_fft_data_out[1] acc_fft_data_out[0] acc_fft_data_in[31] 
+ acc_fft_data_in[30] acc_fft_data_in[29] acc_fft_data_in[28] 
+ acc_fft_data_in[27] acc_fft_data_in[26] acc_fft_data_in[25] 
+ acc_fft_data_in[24] acc_fft_data_in[23] acc_fft_data_in[22] 
+ acc_fft_data_in[21] acc_fft_data_in[20] acc_fft_data_in[19] 
+ acc_fft_data_in[18] acc_fft_data_in[17] acc_fft_data_in[16] 
+ acc_fft_data_in[15] acc_fft_data_in[14] acc_fft_data_in[13] 
+ acc_fft_data_in[12] acc_fft_data_in[11] acc_fft_data_in[10] 
+ acc_fft_data_in[9] acc_fft_data_in[8] acc_fft_data_in[7] acc_fft_data_in[6] 
+ acc_fft_data_in[5] acc_fft_data_in[4] acc_fft_data_in[3] acc_fft_data_in[2] 
+ acc_fft_data_in[1] acc_fft_data_in[0] acc_fir_data_out[31] 
+ acc_fir_data_out[30] acc_fir_data_out[29] acc_fir_data_out[28] 
+ acc_fir_data_out[27] acc_fir_data_out[26] acc_fir_data_out[25] 
+ acc_fir_data_out[24] acc_fir_data_out[23] acc_fir_data_out[22] 
+ acc_fir_data_out[21] acc_fir_data_out[20] acc_fir_data_out[19] 
+ acc_fir_data_out[18] acc_fir_data_out[17] acc_fir_data_out[16] 
+ acc_fir_data_out[15] acc_fir_data_out[14] acc_fir_data_out[13] 
+ acc_fir_data_out[12] acc_fir_data_out[11] acc_fir_data_out[10] 
+ acc_fir_data_out[9] acc_fir_data_out[8] acc_fir_data_out[7] 
+ acc_fir_data_out[6] acc_fir_data_out[5] acc_fir_data_out[4] 
+ acc_fir_data_out[3] acc_fir_data_out[2] acc_fir_data_out[1] 
+ acc_fir_data_out[0] acc_fir_data_in[31] acc_fir_data_in[30] 
+ acc_fir_data_in[29] acc_fir_data_in[28] acc_fir_data_in[27] 
+ acc_fir_data_in[26] acc_fir_data_in[25] acc_fir_data_in[24] 
+ acc_fir_data_in[23] acc_fir_data_in[22] acc_fir_data_in[21] 
+ acc_fir_data_in[20] acc_fir_data_in[19] acc_fir_data_in[18] 
+ acc_fir_data_in[17] acc_fir_data_in[16] acc_fir_data_in[15] 
+ acc_fir_data_in[14] acc_fir_data_in[13] acc_fir_data_in[12] 
+ acc_fir_data_in[11] acc_fir_data_in[10] acc_fir_data_in[9] acc_fir_data_in[8] 
+ acc_fir_data_in[7] acc_fir_data_in[6] acc_fir_data_in[5] acc_fir_data_in[4] 
+ acc_fir_data_in[3] acc_fir_data_in[2] acc_fir_data_in[1] acc_fir_data_in[0] 
+ fft_enable fir_enable to_fft_empty from_fft_full to_fir_empty from_fir_full 
+ ram_read_enable ram_write_enable addr[31] addr[30] addr[29] addr[28] addr[27] 
+ addr[26] addr[25] addr[24] addr[23] addr[22] addr[21] addr[20] addr[19] 
+ addr[18] addr[17] addr[16] addr[15] addr[14] addr[13] addr[12] addr[11] 
+ addr[10] addr[9] addr[8] addr[7] addr[6] addr[5] addr[4] addr[3] addr[2] 
+ addr[1] addr[0] data_bus[31] data_bus[30] data_bus[29] data_bus[28] 
+ data_bus[27] data_bus[26] data_bus[25] data_bus[24] data_bus[23] data_bus[22] 
+ data_bus[21] data_bus[20] data_bus[19] data_bus[18] data_bus[17] data_bus[16] 
+ data_bus[15] data_bus[14] data_bus[13] data_bus[12] data_bus[11] data_bus[10] 
+ data_bus[9] data_bus[8] data_bus[7] data_bus[6] data_bus[5] data_bus[4] 
+ data_bus[3] data_bus[2] data_bus[1] data_bus[0] 
Xclk__L1_I0 clk__L1_N0 clk CLKINVX16TS 
XFE_OFC1825_n7107 FE_OFN1825_n7107 n7107 CLKBUFX2TS 
XFE_OFC1824_router_addr_calc_fir_read_calc_count_5_ 
+ FE_OFN1824_router_addr_calc_fir_read_calc_count_5_ 
+ router_addr_calc_fir_read_calc_count[5] CLKBUFX2TS 
XFE_OFC1823_n4643 FE_OFN1823_n4643 FE_OFN719_n4643 CLKBUFX2TS 
XFE_OFC1822_n4643 FE_OFN1822_n4643 FE_OFN721_n4643 CLKBUFX2TS 
XFE_OFC1821_acc_fft_data_in_28_ FE_OFN1821_acc_fft_data_in_28_ 
+ FE_OFN1819_acc_fft_data_in_28_ CLKINVX1TS 
XFE_OFC1820_acc_fft_data_in_28_ FE_OFN1820_acc_fft_data_in_28_ 
+ FE_OFN1819_acc_fft_data_in_28_ CLKINVX1TS 
XFE_OFC1819_acc_fft_data_in_28_ FE_OFN1819_acc_fft_data_in_28_ 
+ FE_OFN1469_acc_fft_data_in_28_ CLKINVX1TS 
XFE_OFC1818_acc_fir_data_in_26_ FE_OFN1818_acc_fir_data_in_26_ 
+ FE_OFN1656_acc_fir_data_in_26_ CLKBUFX2TS 
XFE_MDBC15_U5584 FE_MDBN15_ fft_data_in[7] BUFX2TS 
XFE_OFC1817_acc_fir_data_in_0_ FE_OFN1817_acc_fir_data_in_0_ 
+ FE_OFN1815_acc_fir_data_in_0_ CLKINVX1TS 
XFE_OFC1816_acc_fir_data_in_0_ FE_OFN1816_acc_fir_data_in_0_ 
+ FE_OFN1815_acc_fir_data_in_0_ CLKINVX1TS 
XFE_OFC1815_acc_fir_data_in_0_ FE_OFN1815_acc_fir_data_in_0_ 
+ FE_OFN1813_acc_fir_data_in_0_ CLKINVX1TS 
XFE_OFC1814_acc_fir_data_in_0_ FE_OFN1814_acc_fir_data_in_0_ 
+ FE_OFN1811_acc_fir_data_in_0_ CLKBUFX2TS 
XFE_OFC1813_acc_fir_data_in_0_ FE_OFN1813_acc_fir_data_in_0_ 
+ FE_OFN1811_acc_fir_data_in_0_ CLKBUFX2TS 
XFE_OFC1812_acc_fir_data_in_0_ FE_OFN1812_acc_fir_data_in_0_ 
+ FE_OFN1809_acc_fir_data_in_0_ CLKINVX1TS 
XFE_OFC1811_acc_fir_data_in_0_ FE_OFN1811_acc_fir_data_in_0_ 
+ FE_OFN1809_acc_fir_data_in_0_ CLKINVX1TS 
XFE_OFC1810_acc_fir_data_in_0_ FE_OFN1810_acc_fir_data_in_0_ 
+ FE_OFN1809_acc_fir_data_in_0_ CLKINVX1TS 
XFE_OFC1809_acc_fir_data_in_0_ FE_OFN1809_acc_fir_data_in_0_ 
+ FE_OFN1808_acc_fir_data_in_0_ CLKINVX1TS 
XFE_OFC1808_acc_fir_data_in_0_ FE_OFN1808_acc_fir_data_in_0_ acc_fir_data_in[0] 
+ CLKBUFX2TS 
XFE_OFC1807_acc_fir_data_in_1_ FE_OFN1807_acc_fir_data_in_1_ 
+ FE_OFN1805_acc_fir_data_in_1_ CLKBUFX2TS 
XFE_OFC1806_acc_fir_data_in_1_ FE_OFN1806_acc_fir_data_in_1_ 
+ FE_OFN1805_acc_fir_data_in_1_ CLKBUFX2TS 
XFE_OFC1805_acc_fir_data_in_1_ FE_OFN1805_acc_fir_data_in_1_ 
+ FE_OFN1803_acc_fir_data_in_1_ CLKBUFX2TS 
XFE_OFC1804_acc_fir_data_in_1_ FE_OFN1804_acc_fir_data_in_1_ 
+ FE_OFN1803_acc_fir_data_in_1_ CLKBUFX2TS 
XFE_OFC1803_acc_fir_data_in_1_ FE_OFN1803_acc_fir_data_in_1_ 
+ FE_OFN1802_acc_fir_data_in_1_ CLKBUFX2TS 
XFE_OFC1802_acc_fir_data_in_1_ FE_OFN1802_acc_fir_data_in_1_ acc_fir_data_in[1] 
+ CLKBUFX2TS 
XFE_OFC1801_acc_fir_data_in_2_ FE_OFN1801_acc_fir_data_in_2_ 
+ FE_OFN1800_acc_fir_data_in_2_ CLKBUFX2TS 
XFE_OFC1800_acc_fir_data_in_2_ FE_OFN1800_acc_fir_data_in_2_ 
+ FE_OFN1798_acc_fir_data_in_2_ CLKINVX1TS 
XFE_OFC1799_acc_fir_data_in_2_ FE_OFN1799_acc_fir_data_in_2_ 
+ FE_OFN1798_acc_fir_data_in_2_ CLKINVX1TS 
XFE_OFC1798_acc_fir_data_in_2_ FE_OFN1798_acc_fir_data_in_2_ 
+ FE_OFN1797_acc_fir_data_in_2_ CLKINVX1TS 
XFE_OFC1797_acc_fir_data_in_2_ FE_OFN1797_acc_fir_data_in_2_ 
+ FE_OFN1796_acc_fir_data_in_2_ CLKBUFX2TS 
XFE_OFC1796_acc_fir_data_in_2_ FE_OFN1796_acc_fir_data_in_2_ 
+ FE_OFN1795_acc_fir_data_in_2_ CLKBUFX2TS 
XFE_OFC1795_acc_fir_data_in_2_ FE_OFN1795_acc_fir_data_in_2_ acc_fir_data_in[2] 
+ CLKBUFX2TS 
XFE_OFC1794_acc_fir_data_in_3_ FE_OFN1794_acc_fir_data_in_3_ 
+ FE_OFN1793_acc_fir_data_in_3_ CLKBUFX2TS 
XFE_OFC1793_acc_fir_data_in_3_ FE_OFN1793_acc_fir_data_in_3_ 
+ FE_OFN1791_acc_fir_data_in_3_ CLKBUFX2TS 
XFE_OFC1792_acc_fir_data_in_3_ FE_OFN1792_acc_fir_data_in_3_ 
+ FE_OFN1790_acc_fir_data_in_3_ CLKBUFX2TS 
XFE_OFC1791_acc_fir_data_in_3_ FE_OFN1791_acc_fir_data_in_3_ 
+ FE_OFN1790_acc_fir_data_in_3_ CLKBUFX2TS 
XFE_OFC1790_acc_fir_data_in_3_ FE_OFN1790_acc_fir_data_in_3_ acc_fir_data_in[3] 
+ CLKBUFX2TS 
XFE_OFC1789_acc_fir_data_in_4_ FE_OFN1789_acc_fir_data_in_4_ 
+ FE_OFN1787_acc_fir_data_in_4_ CLKBUFX2TS 
XFE_OFC1788_acc_fir_data_in_4_ FE_OFN1788_acc_fir_data_in_4_ 
+ FE_OFN1786_acc_fir_data_in_4_ CLKBUFX2TS 
XFE_OFC1787_acc_fir_data_in_4_ FE_OFN1787_acc_fir_data_in_4_ 
+ FE_OFN1784_acc_fir_data_in_4_ CLKBUFX2TS 
XFE_OFC1786_acc_fir_data_in_4_ FE_OFN1786_acc_fir_data_in_4_ 
+ FE_OFN1785_acc_fir_data_in_4_ CLKBUFX2TS 
XFE_OFC1785_acc_fir_data_in_4_ FE_OFN1785_acc_fir_data_in_4_ 
+ FE_OFN1783_acc_fir_data_in_4_ CLKINVX1TS 
XFE_OFC1784_acc_fir_data_in_4_ FE_OFN1784_acc_fir_data_in_4_ 
+ FE_OFN1783_acc_fir_data_in_4_ CLKINVX1TS 
XFE_OFC1783_acc_fir_data_in_4_ FE_OFN1783_acc_fir_data_in_4_ acc_fir_data_in[4] 
+ CLKINVX1TS 
XFE_OFC1782_acc_fir_data_in_5_ FE_OFN1782_acc_fir_data_in_5_ 
+ FE_OFN1781_acc_fir_data_in_5_ CLKBUFX2TS 
XFE_OFC1781_acc_fir_data_in_5_ FE_OFN1781_acc_fir_data_in_5_ 
+ FE_OFN1780_acc_fir_data_in_5_ CLKBUFX2TS 
XFE_OFC1780_acc_fir_data_in_5_ FE_OFN1780_acc_fir_data_in_5_ 
+ FE_OFN1778_acc_fir_data_in_5_ CLKBUFX2TS 
XFE_OFC1779_acc_fir_data_in_5_ FE_OFN1779_acc_fir_data_in_5_ 
+ FE_OFN1778_acc_fir_data_in_5_ CLKBUFX2TS 
XFE_OFC1778_acc_fir_data_in_5_ FE_OFN1778_acc_fir_data_in_5_ 
+ FE_OFN1777_acc_fir_data_in_5_ CLKBUFX2TS 
XFE_OFC1777_acc_fir_data_in_5_ FE_OFN1777_acc_fir_data_in_5_ acc_fir_data_in[5] 
+ CLKBUFX2TS 
XFE_OFC1776_acc_fir_data_in_6_ FE_OFN1776_acc_fir_data_in_6_ 
+ FE_OFN1774_acc_fir_data_in_6_ CLKBUFX2TS 
XFE_OFC1775_acc_fir_data_in_6_ FE_OFN1775_acc_fir_data_in_6_ 
+ FE_OFN1772_acc_fir_data_in_6_ CLKINVX1TS 
XFE_OFC1774_acc_fir_data_in_6_ FE_OFN1774_acc_fir_data_in_6_ 
+ FE_OFN1772_acc_fir_data_in_6_ CLKINVX1TS 
XFE_OFC1773_acc_fir_data_in_6_ FE_OFN1773_acc_fir_data_in_6_ 
+ FE_OFN1772_acc_fir_data_in_6_ CLKINVX1TS 
XFE_OFC1772_acc_fir_data_in_6_ FE_OFN1772_acc_fir_data_in_6_ 
+ FE_OFN1770_acc_fir_data_in_6_ CLKINVX1TS 
XFE_OFC1771_acc_fir_data_in_6_ FE_OFN1771_acc_fir_data_in_6_ 
+ FE_OFN1770_acc_fir_data_in_6_ CLKBUFX2TS 
XFE_OFC1770_acc_fir_data_in_6_ FE_OFN1770_acc_fir_data_in_6_ 
+ FE_OFN1769_acc_fir_data_in_6_ CLKBUFX2TS 
XFE_OFC1769_acc_fir_data_in_6_ FE_OFN1769_acc_fir_data_in_6_ acc_fir_data_in[6] 
+ CLKBUFX2TS 
XFE_OFC1768_acc_fir_data_in_7_ FE_OFN1768_acc_fir_data_in_7_ 
+ FE_OFN1765_acc_fir_data_in_7_ CLKBUFX2TS 
XFE_OFC1767_acc_fir_data_in_7_ FE_OFN1767_acc_fir_data_in_7_ 
+ FE_OFN1766_acc_fir_data_in_7_ CLKBUFX2TS 
XFE_OFC1766_acc_fir_data_in_7_ FE_OFN1766_acc_fir_data_in_7_ 
+ FE_OFN1764_acc_fir_data_in_7_ CLKINVX1TS 
XFE_OFC1765_acc_fir_data_in_7_ FE_OFN1765_acc_fir_data_in_7_ 
+ FE_OFN1764_acc_fir_data_in_7_ CLKINVX1TS 
XFE_OFC1764_acc_fir_data_in_7_ FE_OFN1764_acc_fir_data_in_7_ 
+ FE_OFN1763_acc_fir_data_in_7_ INVX3TS 
XFE_OFC1763_acc_fir_data_in_7_ FE_OFN1763_acc_fir_data_in_7_ 
+ FE_OFN1762_acc_fir_data_in_7_ CLKBUFX2TS 
XFE_OFC1762_acc_fir_data_in_7_ FE_OFN1762_acc_fir_data_in_7_ acc_fir_data_in[7] 
+ CLKBUFX2TS 
XFE_OFC1761_acc_fir_data_in_8_ FE_OFN1761_acc_fir_data_in_8_ 
+ FE_OFN1759_acc_fir_data_in_8_ CLKBUFX2TS 
XFE_OFC1760_acc_fir_data_in_8_ FE_OFN1760_acc_fir_data_in_8_ 
+ FE_OFN1759_acc_fir_data_in_8_ CLKBUFX2TS 
XFE_OFC1759_acc_fir_data_in_8_ FE_OFN1759_acc_fir_data_in_8_ 
+ FE_OFN1758_acc_fir_data_in_8_ CLKBUFX2TS 
XFE_OFC1758_acc_fir_data_in_8_ FE_OFN1758_acc_fir_data_in_8_ 
+ FE_OFN1757_acc_fir_data_in_8_ CLKBUFX2TS 
XFE_OFC1757_acc_fir_data_in_8_ FE_OFN1757_acc_fir_data_in_8_ 
+ FE_OFN1756_acc_fir_data_in_8_ CLKBUFX2TS 
XFE_OFC1756_acc_fir_data_in_8_ FE_OFN1756_acc_fir_data_in_8_ acc_fir_data_in[8] 
+ CLKBUFX2TS 
XFE_OFC1755_acc_fir_data_in_9_ FE_OFN1755_acc_fir_data_in_9_ 
+ FE_OFN1753_acc_fir_data_in_9_ CLKBUFX2TS 
XFE_OFC1754_acc_fir_data_in_9_ FE_OFN1754_acc_fir_data_in_9_ 
+ FE_OFN1752_acc_fir_data_in_9_ CLKBUFX2TS 
XFE_OFC1753_acc_fir_data_in_9_ FE_OFN1753_acc_fir_data_in_9_ 
+ FE_OFN1751_acc_fir_data_in_9_ CLKBUFX2TS 
XFE_OFC1752_acc_fir_data_in_9_ FE_OFN1752_acc_fir_data_in_9_ 
+ FE_OFN1751_acc_fir_data_in_9_ CLKBUFX2TS 
XFE_OFC1751_acc_fir_data_in_9_ FE_OFN1751_acc_fir_data_in_9_ acc_fir_data_in[9] 
+ CLKBUFX2TS 
XFE_OFC1750_acc_fir_data_in_10_ FE_OFN1750_acc_fir_data_in_10_ 
+ FE_OFN1748_acc_fir_data_in_10_ CLKBUFX2TS 
XFE_OFC1749_acc_fir_data_in_10_ FE_OFN1749_acc_fir_data_in_10_ 
+ FE_OFN1747_acc_fir_data_in_10_ CLKBUFX2TS 
XFE_OFC1748_acc_fir_data_in_10_ FE_OFN1748_acc_fir_data_in_10_ 
+ FE_OFN1746_acc_fir_data_in_10_ CLKBUFX2TS 
XFE_OFC1747_acc_fir_data_in_10_ FE_OFN1747_acc_fir_data_in_10_ 
+ FE_OFN1746_acc_fir_data_in_10_ CLKBUFX2TS 
XFE_OFC1746_acc_fir_data_in_10_ FE_OFN1746_acc_fir_data_in_10_ 
+ acc_fir_data_in[10] CLKBUFX2TS 
XFE_OFC1745_acc_fir_data_in_11_ FE_OFN1745_acc_fir_data_in_11_ 
+ FE_OFN1744_acc_fir_data_in_11_ CLKBUFX2TS 
XFE_OFC1744_acc_fir_data_in_11_ FE_OFN1744_acc_fir_data_in_11_ 
+ FE_OFN1743_acc_fir_data_in_11_ CLKBUFX2TS 
XFE_OFC1743_acc_fir_data_in_11_ FE_OFN1743_acc_fir_data_in_11_ 
+ FE_OFN1742_acc_fir_data_in_11_ CLKBUFX2TS 
XFE_OFC1742_acc_fir_data_in_11_ FE_OFN1742_acc_fir_data_in_11_ 
+ FE_OFN1741_acc_fir_data_in_11_ CLKBUFX2TS 
XFE_OFC1741_acc_fir_data_in_11_ FE_OFN1741_acc_fir_data_in_11_ 
+ acc_fir_data_in[11] CLKBUFX2TS 
XFE_OFC1740_acc_fir_data_in_12_ FE_OFN1740_acc_fir_data_in_12_ 
+ FE_OFN1737_acc_fir_data_in_12_ CLKBUFX2TS 
XFE_OFC1739_acc_fir_data_in_12_ FE_OFN1739_acc_fir_data_in_12_ 
+ FE_OFN1738_acc_fir_data_in_12_ CLKBUFX2TS 
XFE_OFC1738_acc_fir_data_in_12_ FE_OFN1738_acc_fir_data_in_12_ 
+ FE_OFN1736_acc_fir_data_in_12_ CLKBUFX2TS 
XFE_OFC1737_acc_fir_data_in_12_ FE_OFN1737_acc_fir_data_in_12_ 
+ FE_OFN1736_acc_fir_data_in_12_ CLKBUFX2TS 
XFE_OFC1736_acc_fir_data_in_12_ FE_OFN1736_acc_fir_data_in_12_ 
+ acc_fir_data_in[12] CLKBUFX2TS 
XFE_OFC1735_acc_fir_data_in_13_ FE_OFN1735_acc_fir_data_in_13_ 
+ FE_OFN1734_acc_fir_data_in_13_ CLKBUFX2TS 
XFE_OFC1734_acc_fir_data_in_13_ FE_OFN1734_acc_fir_data_in_13_ 
+ FE_OFN1733_acc_fir_data_in_13_ CLKBUFX2TS 
XFE_OFC1733_acc_fir_data_in_13_ FE_OFN1733_acc_fir_data_in_13_ 
+ FE_OFN1732_acc_fir_data_in_13_ CLKBUFX2TS 
XFE_OFC1732_acc_fir_data_in_13_ FE_OFN1732_acc_fir_data_in_13_ 
+ FE_OFN1731_acc_fir_data_in_13_ CLKBUFX2TS 
XFE_OFC1731_acc_fir_data_in_13_ FE_OFN1731_acc_fir_data_in_13_ 
+ acc_fir_data_in[13] CLKBUFX2TS 
XFE_OFC1730_acc_fir_data_in_14_ FE_OFN1730_acc_fir_data_in_14_ 
+ FE_OFN1725_acc_fir_data_in_14_ CLKBUFX2TS 
XFE_OFC1729_acc_fir_data_in_14_ FE_OFN1729_acc_fir_data_in_14_ 
+ FE_OFN1727_acc_fir_data_in_14_ CLKBUFX2TS 
XFE_OFC1728_acc_fir_data_in_14_ FE_OFN1728_acc_fir_data_in_14_ 
+ FE_OFN1726_acc_fir_data_in_14_ CLKINVX1TS 
XFE_OFC1727_acc_fir_data_in_14_ FE_OFN1727_acc_fir_data_in_14_ 
+ FE_OFN1726_acc_fir_data_in_14_ CLKINVX1TS 
XFE_OFC1726_acc_fir_data_in_14_ FE_OFN1726_acc_fir_data_in_14_ 
+ FE_OFN1724_acc_fir_data_in_14_ CLKINVX1TS 
XFE_OFC1725_acc_fir_data_in_14_ FE_OFN1725_acc_fir_data_in_14_ 
+ FE_OFN1724_acc_fir_data_in_14_ CLKBUFX2TS 
XFE_OFC1724_acc_fir_data_in_14_ FE_OFN1724_acc_fir_data_in_14_ 
+ acc_fir_data_in[14] CLKBUFX2TS 
XFE_OFC1723_acc_fir_data_in_15_ FE_OFN1723_acc_fir_data_in_15_ 
+ FE_OFN1720_acc_fir_data_in_15_ CLKBUFX2TS 
XFE_OFC1722_acc_fir_data_in_15_ FE_OFN1722_acc_fir_data_in_15_ 
+ FE_OFN1721_acc_fir_data_in_15_ CLKBUFX2TS 
XFE_OFC1721_acc_fir_data_in_15_ FE_OFN1721_acc_fir_data_in_15_ 
+ FE_OFN1719_acc_fir_data_in_15_ CLKBUFX2TS 
XFE_OFC1720_acc_fir_data_in_15_ FE_OFN1720_acc_fir_data_in_15_ 
+ FE_OFN1719_acc_fir_data_in_15_ CLKBUFX2TS 
XFE_OFC1719_acc_fir_data_in_15_ FE_OFN1719_acc_fir_data_in_15_ 
+ acc_fir_data_in[15] CLKBUFX2TS 
XFE_OFC1718_acc_fir_data_in_16_ FE_OFN1718_acc_fir_data_in_16_ 
+ FE_OFN1717_acc_fir_data_in_16_ CLKBUFX2TS 
XFE_OFC1717_acc_fir_data_in_16_ FE_OFN1717_acc_fir_data_in_16_ 
+ FE_OFN1715_acc_fir_data_in_16_ CLKBUFX2TS 
XFE_OFC1716_acc_fir_data_in_16_ FE_OFN1716_acc_fir_data_in_16_ 
+ FE_OFN1714_acc_fir_data_in_16_ CLKINVX1TS 
XFE_OFC1715_acc_fir_data_in_16_ FE_OFN1715_acc_fir_data_in_16_ 
+ FE_OFN1714_acc_fir_data_in_16_ CLKINVX1TS 
XFE_OFC1714_acc_fir_data_in_16_ FE_OFN1714_acc_fir_data_in_16_ 
+ FE_OFN1713_acc_fir_data_in_16_ CLKINVX1TS 
XFE_OFC1713_acc_fir_data_in_16_ FE_OFN1713_acc_fir_data_in_16_ 
+ FE_OFN1712_acc_fir_data_in_16_ CLKBUFX2TS 
XFE_OFC1712_acc_fir_data_in_16_ FE_OFN1712_acc_fir_data_in_16_ 
+ acc_fir_data_in[16] CLKBUFX2TS 
XFE_OFC1711_acc_fir_data_in_17_ FE_OFN1711_acc_fir_data_in_17_ 
+ FE_OFN1708_acc_fir_data_in_17_ CLKBUFX2TS 
XFE_OFC1710_acc_fir_data_in_17_ FE_OFN1710_acc_fir_data_in_17_ 
+ FE_OFN1709_acc_fir_data_in_17_ CLKBUFX2TS 
XFE_OFC1709_acc_fir_data_in_17_ FE_OFN1709_acc_fir_data_in_17_ 
+ FE_OFN1707_acc_fir_data_in_17_ CLKBUFX2TS 
XFE_OFC1708_acc_fir_data_in_17_ FE_OFN1708_acc_fir_data_in_17_ 
+ FE_OFN1707_acc_fir_data_in_17_ CLKBUFX2TS 
XFE_OFC1707_acc_fir_data_in_17_ FE_OFN1707_acc_fir_data_in_17_ 
+ acc_fir_data_in[17] CLKBUFX2TS 
XFE_OFC1706_acc_fir_data_in_18_ FE_OFN1706_acc_fir_data_in_18_ 
+ FE_OFN1705_acc_fir_data_in_18_ CLKBUFX2TS 
XFE_OFC1705_acc_fir_data_in_18_ FE_OFN1705_acc_fir_data_in_18_ 
+ FE_OFN1704_acc_fir_data_in_18_ CLKBUFX2TS 
XFE_OFC1704_acc_fir_data_in_18_ FE_OFN1704_acc_fir_data_in_18_ 
+ FE_OFN1703_acc_fir_data_in_18_ CLKBUFX2TS 
XFE_OFC1703_acc_fir_data_in_18_ FE_OFN1703_acc_fir_data_in_18_ 
+ FE_OFN1702_acc_fir_data_in_18_ CLKBUFX2TS 
XFE_OFC1702_acc_fir_data_in_18_ FE_OFN1702_acc_fir_data_in_18_ 
+ acc_fir_data_in[18] CLKBUFX2TS 
XFE_OFC1701_acc_fir_data_in_19_ FE_OFN1701_acc_fir_data_in_19_ 
+ FE_OFN1699_acc_fir_data_in_19_ CLKBUFX2TS 
XFE_OFC1700_acc_fir_data_in_19_ FE_OFN1700_acc_fir_data_in_19_ 
+ FE_OFN1699_acc_fir_data_in_19_ CLKBUFX2TS 
XFE_OFC1699_acc_fir_data_in_19_ FE_OFN1699_acc_fir_data_in_19_ 
+ FE_OFN1698_acc_fir_data_in_19_ CLKBUFX2TS 
XFE_OFC1698_acc_fir_data_in_19_ FE_OFN1698_acc_fir_data_in_19_ 
+ FE_OFN1696_acc_fir_data_in_19_ CLKINVX1TS 
XFE_OFC1697_acc_fir_data_in_19_ FE_OFN1697_acc_fir_data_in_19_ 
+ FE_OFN1696_acc_fir_data_in_19_ CLKINVX1TS 
XFE_OFC1696_acc_fir_data_in_19_ FE_OFN1696_acc_fir_data_in_19_ 
+ FE_OFN1695_acc_fir_data_in_19_ CLKINVX1TS 
XFE_OFC1695_acc_fir_data_in_19_ FE_OFN1695_acc_fir_data_in_19_ 
+ acc_fir_data_in[19] CLKBUFX2TS 
XFE_OFC1694_acc_fir_data_in_20_ FE_OFN1694_acc_fir_data_in_20_ 
+ FE_OFN1692_acc_fir_data_in_20_ CLKBUFX2TS 
XFE_OFC1693_acc_fir_data_in_20_ FE_OFN1693_acc_fir_data_in_20_ 
+ FE_OFN1691_acc_fir_data_in_20_ CLKBUFX2TS 
XFE_OFC1692_acc_fir_data_in_20_ FE_OFN1692_acc_fir_data_in_20_ 
+ FE_OFN1691_acc_fir_data_in_20_ CLKBUFX2TS 
XFE_OFC1691_acc_fir_data_in_20_ FE_OFN1691_acc_fir_data_in_20_ 
+ FE_OFN1690_acc_fir_data_in_20_ CLKBUFX2TS 
XFE_OFC1690_acc_fir_data_in_20_ FE_OFN1690_acc_fir_data_in_20_ 
+ acc_fir_data_in[20] CLKBUFX2TS 
XFE_OFC1689_acc_fir_data_in_21_ FE_OFN1689_acc_fir_data_in_21_ 
+ FE_OFN1687_acc_fir_data_in_21_ CLKBUFX2TS 
XFE_OFC1688_acc_fir_data_in_21_ FE_OFN1688_acc_fir_data_in_21_ 
+ FE_OFN1686_acc_fir_data_in_21_ CLKINVX1TS 
XFE_OFC1687_acc_fir_data_in_21_ FE_OFN1687_acc_fir_data_in_21_ 
+ FE_OFN1686_acc_fir_data_in_21_ CLKINVX1TS 
XFE_OFC1686_acc_fir_data_in_21_ FE_OFN1686_acc_fir_data_in_21_ 
+ FE_OFN1685_acc_fir_data_in_21_ CLKINVX1TS 
XFE_OFC1685_acc_fir_data_in_21_ FE_OFN1685_acc_fir_data_in_21_ 
+ FE_OFN1684_acc_fir_data_in_21_ CLKBUFX2TS 
XFE_OFC1684_acc_fir_data_in_21_ FE_OFN1684_acc_fir_data_in_21_ 
+ FE_OFN1683_acc_fir_data_in_21_ CLKBUFX2TS 
XFE_OFC1683_acc_fir_data_in_21_ FE_OFN1683_acc_fir_data_in_21_ 
+ acc_fir_data_in[21] CLKBUFX2TS 
XFE_OFC1682_acc_fir_data_in_22_ FE_OFN1682_acc_fir_data_in_22_ 
+ FE_OFN1681_acc_fir_data_in_22_ CLKBUFX2TS 
XFE_OFC1681_acc_fir_data_in_22_ FE_OFN1681_acc_fir_data_in_22_ 
+ FE_OFN1680_acc_fir_data_in_22_ CLKBUFX2TS 
XFE_OFC1680_acc_fir_data_in_22_ FE_OFN1680_acc_fir_data_in_22_ 
+ FE_OFN1678_acc_fir_data_in_22_ CLKBUFX2TS 
XFE_OFC1679_acc_fir_data_in_22_ FE_OFN1679_acc_fir_data_in_22_ 
+ FE_OFN1678_acc_fir_data_in_22_ CLKBUFX2TS 
XFE_OFC1678_acc_fir_data_in_22_ FE_OFN1678_acc_fir_data_in_22_ 
+ acc_fir_data_in[22] CLKBUFX2TS 
XFE_OFC1677_acc_fir_data_in_23_ FE_OFN1677_acc_fir_data_in_23_ 
+ FE_OFN1675_acc_fir_data_in_23_ CLKBUFX2TS 
XFE_OFC1676_acc_fir_data_in_23_ FE_OFN1676_acc_fir_data_in_23_ 
+ FE_OFN1674_acc_fir_data_in_23_ CLKINVX1TS 
XFE_OFC1675_acc_fir_data_in_23_ FE_OFN1675_acc_fir_data_in_23_ 
+ FE_OFN1674_acc_fir_data_in_23_ CLKINVX1TS 
XFE_OFC1674_acc_fir_data_in_23_ FE_OFN1674_acc_fir_data_in_23_ 
+ FE_OFN1672_acc_fir_data_in_23_ CLKINVX1TS 
XFE_OFC1673_acc_fir_data_in_23_ FE_OFN1673_acc_fir_data_in_23_ 
+ FE_OFN1672_acc_fir_data_in_23_ CLKBUFX2TS 
XFE_OFC1672_acc_fir_data_in_23_ FE_OFN1672_acc_fir_data_in_23_ 
+ FE_OFN1671_acc_fir_data_in_23_ CLKBUFX2TS 
XFE_OFC1671_acc_fir_data_in_23_ FE_OFN1671_acc_fir_data_in_23_ 
+ acc_fir_data_in[23] CLKBUFX2TS 
XFE_OFC1670_acc_fir_data_in_24_ FE_OFN1670_acc_fir_data_in_24_ 
+ FE_OFN1669_acc_fir_data_in_24_ CLKBUFX2TS 
XFE_OFC1669_acc_fir_data_in_24_ FE_OFN1669_acc_fir_data_in_24_ 
+ FE_OFN1667_acc_fir_data_in_24_ CLKBUFX2TS 
XFE_OFC1668_acc_fir_data_in_24_ FE_OFN1668_acc_fir_data_in_24_ 
+ FE_OFN1667_acc_fir_data_in_24_ CLKBUFX2TS 
XFE_OFC1667_acc_fir_data_in_24_ FE_OFN1667_acc_fir_data_in_24_ 
+ FE_OFN1666_acc_fir_data_in_24_ CLKBUFX2TS 
XFE_OFC1666_acc_fir_data_in_24_ FE_OFN1666_acc_fir_data_in_24_ 
+ acc_fir_data_in[24] CLKBUFX2TS 
XFE_OFC1665_acc_fir_data_in_25_ FE_OFN1665_acc_fir_data_in_25_ 
+ FE_OFN1664_acc_fir_data_in_25_ CLKBUFX2TS 
XFE_OFC1664_acc_fir_data_in_25_ FE_OFN1664_acc_fir_data_in_25_ 
+ FE_OFN1663_acc_fir_data_in_25_ CLKBUFX2TS 
XFE_OFC1663_acc_fir_data_in_25_ FE_OFN1663_acc_fir_data_in_25_ 
+ FE_OFN1662_acc_fir_data_in_25_ CLKBUFX2TS 
XFE_OFC1662_acc_fir_data_in_25_ FE_OFN1662_acc_fir_data_in_25_ 
+ FE_OFN1661_acc_fir_data_in_25_ CLKBUFX2TS 
XFE_OFC1661_acc_fir_data_in_25_ FE_OFN1661_acc_fir_data_in_25_ 
+ acc_fir_data_in[25] CLKBUFX2TS 
XFE_OFC1660_acc_fir_data_in_26_ FE_OFN1660_acc_fir_data_in_26_ 
+ FE_OFN1659_acc_fir_data_in_26_ CLKBUFX2TS 
XFE_OFC1659_acc_fir_data_in_26_ FE_OFN1659_acc_fir_data_in_26_ 
+ FE_OFN1818_acc_fir_data_in_26_ CLKBUFX2TS 
XFE_OFC1658_acc_fir_data_in_26_ FE_OFN1658_acc_fir_data_in_26_ 
+ FE_OFN1657_acc_fir_data_in_26_ CLKBUFX2TS 
XFE_OFC1657_acc_fir_data_in_26_ FE_OFN1657_acc_fir_data_in_26_ 
+ FE_OFN1818_acc_fir_data_in_26_ CLKBUFX2TS 
XFE_OFC1656_acc_fir_data_in_26_ FE_OFN1656_acc_fir_data_in_26_ 
+ acc_fir_data_in[26] CLKBUFX2TS 
XFE_OFC1655_acc_fir_data_in_27_ FE_OFN1655_acc_fir_data_in_27_ 
+ FE_OFN1653_acc_fir_data_in_27_ CLKBUFX2TS 
XFE_OFC1654_acc_fir_data_in_27_ FE_OFN1654_acc_fir_data_in_27_ 
+ FE_OFN1652_acc_fir_data_in_27_ CLKBUFX2TS 
XFE_OFC1653_acc_fir_data_in_27_ FE_OFN1653_acc_fir_data_in_27_ 
+ FE_OFN1651_acc_fir_data_in_27_ CLKBUFX2TS 
XFE_OFC1652_acc_fir_data_in_27_ FE_OFN1652_acc_fir_data_in_27_ 
+ FE_OFN1651_acc_fir_data_in_27_ CLKBUFX2TS 
XFE_OFC1651_acc_fir_data_in_27_ FE_OFN1651_acc_fir_data_in_27_ 
+ acc_fir_data_in[27] CLKBUFX2TS 
XFE_OFC1650_acc_fir_data_in_28_ FE_OFN1650_acc_fir_data_in_28_ 
+ FE_OFN1648_acc_fir_data_in_28_ CLKBUFX2TS 
XFE_OFC1649_acc_fir_data_in_28_ FE_OFN1649_acc_fir_data_in_28_ 
+ FE_OFN1647_acc_fir_data_in_28_ CLKBUFX2TS 
XFE_OFC1648_acc_fir_data_in_28_ FE_OFN1648_acc_fir_data_in_28_ 
+ FE_OFN1646_acc_fir_data_in_28_ CLKBUFX2TS 
XFE_OFC1647_acc_fir_data_in_28_ FE_OFN1647_acc_fir_data_in_28_ 
+ FE_OFN1646_acc_fir_data_in_28_ CLKBUFX2TS 
XFE_OFC1646_acc_fir_data_in_28_ FE_OFN1646_acc_fir_data_in_28_ 
+ acc_fir_data_in[28] CLKBUFX2TS 
XFE_OFC1645_acc_fir_data_in_29_ FE_OFN1645_acc_fir_data_in_29_ 
+ FE_OFN1643_acc_fir_data_in_29_ CLKBUFX2TS 
XFE_OFC1644_acc_fir_data_in_29_ FE_OFN1644_acc_fir_data_in_29_ 
+ FE_OFN1643_acc_fir_data_in_29_ CLKBUFX2TS 
XFE_OFC1643_acc_fir_data_in_29_ FE_OFN1643_acc_fir_data_in_29_ 
+ FE_OFN1641_acc_fir_data_in_29_ CLKBUFX2TS 
XFE_OFC1642_acc_fir_data_in_29_ FE_OFN1642_acc_fir_data_in_29_ 
+ FE_OFN1639_acc_fir_data_in_29_ CLKINVX1TS 
XFE_OFC1641_acc_fir_data_in_29_ FE_OFN1641_acc_fir_data_in_29_ 
+ FE_OFN1639_acc_fir_data_in_29_ CLKINVX1TS 
XFE_OFC1640_acc_fir_data_in_29_ FE_OFN1640_acc_fir_data_in_29_ 
+ FE_OFN1639_acc_fir_data_in_29_ CLKINVX1TS 
XFE_OFC1639_acc_fir_data_in_29_ FE_OFN1639_acc_fir_data_in_29_ 
+ FE_OFN1638_acc_fir_data_in_29_ CLKINVX1TS 
XFE_OFC1638_acc_fir_data_in_29_ FE_OFN1638_acc_fir_data_in_29_ 
+ acc_fir_data_in[29] CLKBUFX2TS 
XFE_OFC1637_acc_fir_data_in_30_ FE_OFN1637_acc_fir_data_in_30_ 
+ FE_OFN1635_acc_fir_data_in_30_ CLKBUFX2TS 
XFE_OFC1636_acc_fir_data_in_30_ FE_OFN1636_acc_fir_data_in_30_ 
+ FE_OFN1634_acc_fir_data_in_30_ CLKBUFX2TS 
XFE_OFC1635_acc_fir_data_in_30_ FE_OFN1635_acc_fir_data_in_30_ 
+ FE_OFN1633_acc_fir_data_in_30_ CLKBUFX2TS 
XFE_OFC1634_acc_fir_data_in_30_ FE_OFN1634_acc_fir_data_in_30_ 
+ FE_OFN1633_acc_fir_data_in_30_ CLKBUFX2TS 
XFE_OFC1633_acc_fir_data_in_30_ FE_OFN1633_acc_fir_data_in_30_ 
+ acc_fir_data_in[30] CLKBUFX2TS 
XFE_OFC1632_acc_fir_data_in_31_ FE_OFN1632_acc_fir_data_in_31_ 
+ FE_OFN1630_acc_fir_data_in_31_ CLKBUFX2TS 
XFE_OFC1631_acc_fir_data_in_31_ FE_OFN1631_acc_fir_data_in_31_ 
+ FE_OFN1630_acc_fir_data_in_31_ CLKBUFX2TS 
XFE_OFC1630_acc_fir_data_in_31_ FE_OFN1630_acc_fir_data_in_31_ 
+ FE_OFN1629_acc_fir_data_in_31_ CLKBUFX2TS 
XFE_OFC1629_acc_fir_data_in_31_ FE_OFN1629_acc_fir_data_in_31_ 
+ FE_OFN1628_acc_fir_data_in_31_ CLKBUFX2TS 
XFE_OFC1628_acc_fir_data_in_31_ FE_OFN1628_acc_fir_data_in_31_ 
+ acc_fir_data_in[31] CLKBUFX2TS 
XFE_OFC1627_acc_fft_data_in_0_ FE_OFN1627_acc_fft_data_in_0_ 
+ FE_OFN1626_acc_fft_data_in_0_ CLKBUFX2TS 
XFE_OFC1626_acc_fft_data_in_0_ FE_OFN1626_acc_fft_data_in_0_ 
+ FE_OFN1625_acc_fft_data_in_0_ CLKBUFX2TS 
XFE_OFC1625_acc_fft_data_in_0_ FE_OFN1625_acc_fft_data_in_0_ 
+ FE_OFN1624_acc_fft_data_in_0_ CLKBUFX2TS 
XFE_OFC1624_acc_fft_data_in_0_ FE_OFN1624_acc_fft_data_in_0_ 
+ FE_OFN1623_acc_fft_data_in_0_ CLKBUFX2TS 
XFE_OFC1623_acc_fft_data_in_0_ FE_OFN1623_acc_fft_data_in_0_ 
+ FE_OFN1622_acc_fft_data_in_0_ CLKBUFX2TS 
XFE_OFC1622_acc_fft_data_in_0_ FE_OFN1622_acc_fft_data_in_0_ acc_fft_data_in[0] 
+ CLKBUFX2TS 
XFE_OFC1621_acc_fft_data_in_1_ FE_OFN1621_acc_fft_data_in_1_ 
+ FE_OFN1619_acc_fft_data_in_1_ CLKINVX1TS 
XFE_OFC1620_acc_fft_data_in_1_ FE_OFN1620_acc_fft_data_in_1_ 
+ FE_OFN1619_acc_fft_data_in_1_ CLKINVX1TS 
XFE_OFC1619_acc_fft_data_in_1_ FE_OFN1619_acc_fft_data_in_1_ 
+ FE_OFN1618_acc_fft_data_in_1_ CLKINVX1TS 
XFE_OFC1618_acc_fft_data_in_1_ FE_OFN1618_acc_fft_data_in_1_ 
+ FE_OFN1617_acc_fft_data_in_1_ CLKBUFX2TS 
XFE_OFC1617_acc_fft_data_in_1_ FE_OFN1617_acc_fft_data_in_1_ 
+ FE_OFN1616_acc_fft_data_in_1_ CLKBUFX2TS 
XFE_OFC1616_acc_fft_data_in_1_ FE_OFN1616_acc_fft_data_in_1_ 
+ FE_OFN1615_acc_fft_data_in_1_ CLKBUFX2TS 
XFE_OFC1615_acc_fft_data_in_1_ FE_OFN1615_acc_fft_data_in_1_ acc_fft_data_in[1] 
+ CLKBUFX2TS 
XFE_OFC1614_acc_fft_data_in_2_ FE_OFN1614_acc_fft_data_in_2_ 
+ FE_OFN1612_acc_fft_data_in_2_ CLKBUFX2TS 
XFE_OFC1613_acc_fft_data_in_2_ FE_OFN1613_acc_fft_data_in_2_ 
+ FE_OFN1611_acc_fft_data_in_2_ CLKINVX1TS 
XFE_OFC1612_acc_fft_data_in_2_ FE_OFN1612_acc_fft_data_in_2_ 
+ FE_OFN1611_acc_fft_data_in_2_ CLKINVX1TS 
XFE_OFC1611_acc_fft_data_in_2_ FE_OFN1611_acc_fft_data_in_2_ 
+ FE_OFN1610_acc_fft_data_in_2_ CLKINVX1TS 
XFE_OFC1610_acc_fft_data_in_2_ FE_OFN1610_acc_fft_data_in_2_ 
+ FE_OFN1609_acc_fft_data_in_2_ CLKBUFX2TS 
XFE_OFC1609_acc_fft_data_in_2_ FE_OFN1609_acc_fft_data_in_2_ 
+ FE_OFN1608_acc_fft_data_in_2_ CLKBUFX2TS 
XFE_OFC1608_acc_fft_data_in_2_ FE_OFN1608_acc_fft_data_in_2_ acc_fft_data_in[2] 
+ CLKBUFX2TS 
XFE_OFC1607_acc_fft_data_in_3_ FE_OFN1607_acc_fft_data_in_3_ 
+ FE_OFN1605_acc_fft_data_in_3_ CLKBUFX2TS 
XFE_OFC1606_acc_fft_data_in_3_ FE_OFN1606_acc_fft_data_in_3_ 
+ FE_OFN1605_acc_fft_data_in_3_ CLKBUFX2TS 
XFE_OFC1605_acc_fft_data_in_3_ FE_OFN1605_acc_fft_data_in_3_ 
+ FE_OFN1604_acc_fft_data_in_3_ CLKBUFX2TS 
XFE_OFC1604_acc_fft_data_in_3_ FE_OFN1604_acc_fft_data_in_3_ 
+ FE_OFN1603_acc_fft_data_in_3_ CLKBUFX2TS 
XFE_OFC1603_acc_fft_data_in_3_ FE_OFN1603_acc_fft_data_in_3_ acc_fft_data_in[3] 
+ CLKBUFX2TS 
XFE_OFC1602_acc_fft_data_in_4_ FE_OFN1602_acc_fft_data_in_4_ 
+ FE_OFN1601_acc_fft_data_in_4_ CLKBUFX2TS 
XFE_OFC1601_acc_fft_data_in_4_ FE_OFN1601_acc_fft_data_in_4_ 
+ FE_OFN1600_acc_fft_data_in_4_ CLKBUFX2TS 
XFE_OFC1600_acc_fft_data_in_4_ FE_OFN1600_acc_fft_data_in_4_ 
+ FE_OFN1597_acc_fft_data_in_4_ CLKBUFX2TS 
XFE_OFC1599_acc_fft_data_in_4_ FE_OFN1599_acc_fft_data_in_4_ 
+ FE_OFN1598_acc_fft_data_in_4_ CLKBUFX2TS 
XFE_OFC1598_acc_fft_data_in_4_ FE_OFN1598_acc_fft_data_in_4_ 
+ FE_OFN1596_acc_fft_data_in_4_ CLKINVX1TS 
XFE_OFC1597_acc_fft_data_in_4_ FE_OFN1597_acc_fft_data_in_4_ 
+ FE_OFN1596_acc_fft_data_in_4_ CLKINVX1TS 
XFE_OFC1596_acc_fft_data_in_4_ FE_OFN1596_acc_fft_data_in_4_ acc_fft_data_in[4] 
+ CLKINVX2TS 
XFE_OFC1595_acc_fft_data_in_5_ FE_OFN1595_acc_fft_data_in_5_ 
+ FE_OFN1593_acc_fft_data_in_5_ CLKBUFX2TS 
XFE_OFC1594_acc_fft_data_in_5_ FE_OFN1594_acc_fft_data_in_5_ 
+ FE_OFN1592_acc_fft_data_in_5_ CLKBUFX2TS 
XFE_OFC1593_acc_fft_data_in_5_ FE_OFN1593_acc_fft_data_in_5_ 
+ FE_OFN1592_acc_fft_data_in_5_ CLKBUFX2TS 
XFE_OFC1592_acc_fft_data_in_5_ FE_OFN1592_acc_fft_data_in_5_ 
+ FE_OFN1591_acc_fft_data_in_5_ CLKBUFX2TS 
XFE_OFC1591_acc_fft_data_in_5_ FE_OFN1591_acc_fft_data_in_5_ acc_fft_data_in[5] 
+ CLKBUFX2TS 
XFE_OFC1590_acc_fft_data_in_6_ FE_OFN1590_acc_fft_data_in_6_ 
+ FE_OFN1588_acc_fft_data_in_6_ CLKBUFX2TS 
XFE_OFC1589_acc_fft_data_in_6_ FE_OFN1589_acc_fft_data_in_6_ 
+ FE_OFN1588_acc_fft_data_in_6_ CLKBUFX2TS 
XFE_OFC1588_acc_fft_data_in_6_ FE_OFN1588_acc_fft_data_in_6_ 
+ FE_OFN1587_acc_fft_data_in_6_ CLKBUFX2TS 
XFE_OFC1587_acc_fft_data_in_6_ FE_OFN1587_acc_fft_data_in_6_ 
+ FE_OFN1586_acc_fft_data_in_6_ CLKBUFX2TS 
XFE_OFC1586_acc_fft_data_in_6_ FE_OFN1586_acc_fft_data_in_6_ 
+ FE_OFN1585_acc_fft_data_in_6_ CLKBUFX2TS 
XFE_OFC1585_acc_fft_data_in_6_ FE_OFN1585_acc_fft_data_in_6_ acc_fft_data_in[6] 
+ CLKBUFX2TS 
XFE_OFC1584_acc_fft_data_in_7_ FE_OFN1584_acc_fft_data_in_7_ 
+ FE_OFN1583_acc_fft_data_in_7_ CLKBUFX2TS 
XFE_OFC1583_acc_fft_data_in_7_ FE_OFN1583_acc_fft_data_in_7_ 
+ FE_OFN1582_acc_fft_data_in_7_ CLKBUFX2TS 
XFE_OFC1582_acc_fft_data_in_7_ FE_OFN1582_acc_fft_data_in_7_ 
+ FE_OFN1580_acc_fft_data_in_7_ CLKBUFX2TS 
XFE_OFC1581_acc_fft_data_in_7_ FE_OFN1581_acc_fft_data_in_7_ 
+ FE_OFN1580_acc_fft_data_in_7_ CLKBUFX2TS 
XFE_OFC1580_acc_fft_data_in_7_ FE_OFN1580_acc_fft_data_in_7_ acc_fft_data_in[7] 
+ CLKBUFX2TS 
XFE_OFC1579_acc_fft_data_in_8_ FE_OFN1579_acc_fft_data_in_8_ 
+ FE_OFN1578_acc_fft_data_in_8_ CLKBUFX2TS 
XFE_OFC1578_acc_fft_data_in_8_ FE_OFN1578_acc_fft_data_in_8_ 